48
Lattice = "8.39999961853 0.0 0.0 0.0 8.39999961853 0.0 0.0 0.0 12.6000003815" Properties=species:S:1:pos:R:3:forces:R:3 energy=-555.488929 stress="49282.159999999996 -336.55 1149.4 -336.55 47874.28 103.05 1149.4 103.05 42424.24"
Ta 0.03512 8.32736 0.04735 0.195543 1.082051 -0.703584
Ta 2.11581 2.13939 0.01641 0.073477 -0.45744 0.514192
Ta 2.07079 8.37632 2.08792 0.676688 0.377328 0.179098
Ta 8.35783 2.03849 2.1809 0.908543 1.149934 -0.889987
Ta 4.1959 8.34696 12.58734 -0.535175 0.46913 0.038878
Ta 6.26437 2.08135 0.07679 0.299386 0.583712 -0.602461
Ta 6.37037 0.01366 2.02106 -1.294312 -0.635008 0.710817
Ta 4.24611 2.17769 2.0911 -0.680948 -0.985152 -0.181143
Ta 0.07372 4.12817 12.59093 -0.441435 0.019262 0.248804
Ta 2.06857 6.35351 0.07211 0.019431 -0.602725 -1.010885
Ta 2.08855 4.27095 2.1785 0.282438 -0.433272 -0.555293
Ta 8.32144 6.22087 2.0537 0.410783 0.004178 0.562681
Ta 8.38888 8.37714 4.11943 0.308962 -0.309358 1.164082
Ta 2.14887 2.13908 4.15126 -0.277118 -0.404867 0.461854
Ta 2.17928 0.06945 6.33693 -0.935206 0.091758 0.125678
Ta 8.33101 2.14872 6.25637 0.561863 -0.262483 -0.416106
Ta 0.04108 0.06912 8.45283 -0.702254 -0.942391 -0.611289
Ta 2.03186 2.1051 8.47317 0.838748 0.336408 -1.260827
Ta 2.03098 0.04717 10.43185 0.916049 -0.870293 0.557485
Ta 0.04291 2.11193 10.50269 -1.3273 0.203866 0.673734
Ta 4.14453 4.27665 12.57389 -0.213966 -0.473756 0.070353
Ta 6.32205 6.30175 0.07023 -0.132763 -0.567711 -0.903952
Ta 6.21861 4.20945 2.09303 0.67931 0.016608 -0.165874
Ta 4.17333 6.29865 2.04198 0.497926 0.362234 0.845656
Ta 4.15271 8.31825 4.24383 0.677104 0.920677 -1.089099
Ta 6.3722 2.05801 4.12152 -0.64023 -0.357381 0.702795
Ta 6.27712 8.34356 6.37931 0.466257 0.752415 -0.704172
Ta 4.23102 2.13963 6.26783 -0.008734 -0.194259 0.29676
Ta 4.24458 8.3949 8.41406 -0.466657 0.049088 0.415361
Ta 6.27345 2.10269 8.33365 0.108823 0.031661 0.455912
Ta 6.25209 0.06243 10.5671 0.797058 -0.392281 -0.266682
Ta 4.2291 2.06722 10.51411 -0.167331 0.154586 0.125317
Ta 0.08155 4.27803 4.14262 -0.411464 -0.432115 0.501631
Ta 2.14772 6.356 4.24419 -0.424297 -0.329112 -0.005029
Ta 2.16225 4.21453 6.37281 -0.085025 -0.301886 -0.275683
Ta 8.3388 6.27522 6.25427 0.960965 0.503338 0.576671
Ta 8.34558 4.21909 8.35011 -0.19525 0.229496 0.190219
Ta 2.1414 6.25722 8.39529 -0.406155 0.495631 -0.072931
Ta 2.0676 4.16509 10.42654 0.162024 0.547732 0.361796
Ta 0.02779 6.27183 10.57064 -0.481675 -0.102235 -0.668364
Ta 4.27167 4.12358 4.18383 -0.624257 0.830488 0.131313
Ta 6.32831 6.30033 4.23746 -0.368349 0.352357 -1.043225
Ta 6.26272 4.22118 6.22845 0.153851 -0.400134 0.035347
Ta 4.22203 6.31398 6.22074 -0.268132 -0.584423 0.698344
Ta 4.25894 4.24103 8.47645 -0.353687 -0.638133 -0.793996
Ta 6.25491 6.2908 8.36135 0.799557 0.331093 0.79638
Ta 6.21723 4.19649 10.48535 1.309309 -0.431997 0.676066
Ta 4.26927 6.21862 10.51505 -0.662374 1.213381 0.103354
