48
Lattice = "8.39999961853 0.0 0.0 0.0 8.39999961853 0.0 0.0 0.0 12.6000003815" Properties=species:S:1:pos:R:3:forces:R:3 energy=-556.047132 stress="42983.7 837.4200000000001 145.2 837.4200000000001 43867.59 -1054.67 145.2 -1054.67 42053.840000000004"
Ta 8.35391 0.02768 12.53195 0.2996 0.097159 -0.189691
Ta 2.09406 2.10567 12.58345 -0.566566 -0.276803 -0.258138
Ta 2.0736 8.3527 2.13624 0.431138 0.069631 -0.176146
Ta 0.07104 2.02659 2.16207 -0.798628 0.179308 -0.911212
Ta 4.24337 0.07189 0.06066 -0.667104 -1.01187 -0.253714
Ta 6.24014 2.08636 12.54857 0.783637 0.195082 0.154676
Ta 6.33344 8.39148 2.02558 -0.303788 0.247493 1.015414
Ta 4.16535 2.06646 2.04504 0.073468 0.186828 0.468777
Ta 8.32677 4.23996 0.02711 0.81379 -0.478646 0.053713
Ta 2.08781 6.37504 12.59133 0.032354 -0.135994 0.303608
Ta 2.06443 4.14688 2.08857 -0.166601 0.775039 -0.532869
Ta 8.38638 6.37661 2.05779 -0.182172 -0.557039 0.479008
Ta 8.37411 8.39962 4.27195 0.241148 -0.01589 -0.246337
Ta 2.10985 2.13127 4.13256 0.516219 -0.39379 1.293154
Ta 2.14384 0.00652 6.34882 0.125171 0.286979 -0.653648
Ta 8.34346 2.03521 6.31512 0.018758 0.590464 0.348758
Ta 0.03525 8.32946 8.41429 -0.219143 0.55592 0.013803
Ta 2.12988 2.0852 8.36064 -0.099944 0.308003 0.252642
Ta 2.08083 8.32403 10.45611 0.15963 0.438777 0.611576
Ta 0.02857 2.10046 10.46488 0.00465 0.06223 -0.163579
Ta 4.12633 4.25698 12.56375 -0.253803 -0.345212 0.164038
Ta 6.24339 6.25677 0.07703 0.214297 0.405605 -0.193076
Ta 6.23523 4.15385 2.04007 0.673655 -0.032667 0.435699
Ta 4.23419 6.22194 2.15425 -0.259175 0.88278 -0.155619
Ta 4.19632 0.02098 4.26019 0.256837 0.15204 -0.517119
Ta 6.2787 2.16315 4.12282 -0.232405 -0.499866 0.253482
Ta 6.34721 8.31974 6.30085 -0.979334 0.910385 0.303536
Ta 4.28154 2.17035 6.32716 -0.15794 -0.615192 -0.1244
Ta 4.18199 8.39045 8.46612 0.325504 0.011668 -0.623247
Ta 6.26218 2.04661 8.48258 0.1676 0.725305 -0.25923
Ta 6.23956 8.33727 10.47655 0.418626 0.454527 0.207051
Ta 4.15476 2.10491 10.56002 -0.313925 0.116788 -0.527027
Ta 0.01924 4.13985 4.22933 -0.14445 0.528571 -0.009114
Ta 2.08713 6.26332 4.12939 -0.556542 0.338386 0.377019
Ta 2.15091 4.23252 6.31161 -0.453388 -0.485864 -0.240866
Ta 0.01574 6.34253 6.34105 0.560159 -0.626169 -0.553544
Ta 0.06165 4.27339 8.34091 -0.693509 -0.695001 0.015426
Ta 2.17693 6.29896 8.40088 -0.096806 0.060357 0.058203
Ta 2.04233 4.27207 10.49743 -0.170105 0.047304 0.328134
Ta 8.326 6.32148 10.47975 0.051179 -0.370901 0.321938
Ta 4.17478 4.27838 4.20752 -0.040763 -0.935827 -0.576582
Ta 6.33594 6.28787 4.27554 0.307038 0.027247 -1.208419
Ta 6.22034 4.2468 6.22637 0.65603 -0.422269 1.121308
Ta 4.16145 6.31917 6.2391 0.094184 0.321459 0.407157
Ta 4.14417 4.25682 8.46183 0.755121 -0.328996 0.17207
Ta 6.30692 6.29958 8.38648 -0.576112 -0.600141 0.013593
Ta 6.30183 4.19292 10.57602 0.207371 0.051704 -0.883456
Ta 4.25713 6.3237 10.54986 -0.254962 -0.198902 0.083246
