48
Lattice = "8.39999961853 0.0 0.0 0.0 8.39999961853 0.0 0.0 0.0 12.6000003815" Properties=species:S:1:pos:R:3:forces:R:3 energy=-555.968399 stress="43047.68 454.90999999999997 -179.26 454.90999999999997 45952.240000000005 326.2 -179.26 326.2 41269.62"
Ta 8.33107 8.3509 0.0015 0.920711 0.047635 0.466085
Ta 2.15215 2.06155 0.00638 0.013766 0.114377 0.114976
Ta 2.17243 8.36545 2.15847 -0.432619 0.744561 -0.543999
Ta 0.00213 2.13268 2.0346 0.046002 -1.061264 0.961179
Ta 4.23222 0.05817 12.55891 -0.409962 -0.778639 -0.063284
Ta 6.26764 2.04607 0.0766 -0.214809 0.598564 -0.689581
Ta 6.24022 8.35975 2.09956 0.446009 0.343529 0.506397
Ta 4.25858 2.10916 2.17653 -0.950565 0.012664 -0.279387
Ta 8.36413 4.13793 0.03804 0.227157 0.360461 -0.615113
Ta 2.07699 6.23218 0.02357 -0.035908 0.836465 0.1878
Ta 2.04438 4.13335 2.10915 0.215365 0.362086 -0.128602
Ta 8.34053 6.35158 2.10339 0.192164 -0.413234 -0.37135
Ta 8.39644 8.33273 4.21315 -0.029012 0.821143 -0.309048
Ta 2.05049 2.18199 4.27857 -0.15645 -0.41091 -0.813722
Ta 2.10797 0.00795 6.24152 -0.317156 -0.701413 0.424479
Ta 0.00876 2.1029 6.29925 -0.221688 -0.231517 -0.287747
Ta 0.00111 8.39169 8.41011 0.358727 -0.010756 -0.601951
Ta 2.07824 2.14165 8.32985 0.262314 -0.445469 0.887731
Ta 2.04556 0.08072 10.52474 0.5264 -0.285219 -0.083721
Ta 8.37798 2.01756 10.54116 -0.140639 1.218338 -0.186234
Ta 4.12695 4.2567 0.0353 0.753601 -0.317693 0.037295
Ta 6.32498 6.30315 0.03712 -0.388071 -0.337876 -0.313802
Ta 6.30962 4.14127 2.13365 -0.135269 0.601454 0.056099
Ta 4.23315 6.34774 2.12982 -0.212883 -0.527314 -0.160335
Ta 4.19249 0.03152 4.23264 -0.076723 -0.943434 0.376392
Ta 6.23832 2.03393 4.19631 1.15411 0.515942 0.335054
Ta 6.34797 8.36641 6.29619 -0.34515 0.166198 -0.034551
Ta 4.17707 2.07642 6.27401 0.591806 0.420296 0.519899
Ta 4.21362 8.37068 8.38105 -0.080896 0.523146 -0.053202
Ta 6.36717 2.12038 8.33147 -0.401482 -0.340538 0.569328
Ta 6.37677 8.37217 10.48208 -0.574779 0.057651 -0.218756
Ta 4.263 2.08575 10.46917 0.085217 0.16737 -0.392696
Ta 0.00308 4.25945 4.25831 -0.216132 -0.940307 -0.693366
Ta 2.02019 6.29183 4.12359 0.782573 -0.22301 0.653063
Ta 2.13428 4.1517 6.3785 0.043308 1.139429 -0.121789
Ta 8.35004 6.21881 6.28464 1.158421 0.740718 0.664429
Ta 8.39923 4.25788 8.41667 0.108854 -0.46318 0.567778
Ta 2.14057 6.3406 8.46909 -0.263525 0.035096 -0.867844
Ta 2.1474 4.23778 10.49162 -0.289223 -1.035858 0.015625
Ta 0.0553 6.25623 10.45097 -0.282479 0.0763 0.811523
Ta 4.15104 4.23317 4.16596 0.281648 0.167552 0.379349
Ta 6.33045 6.25832 4.24115 -0.699707 0.07144 -0.17646
Ta 6.37853 4.15779 6.33602 -1.073636 -0.112077 -0.599552
Ta 4.1996 6.23651 6.33229 -0.262227 0.289885 -0.585827
Ta 4.28008 4.27309 8.43274 -0.041823 -0.686192 -0.088247
Ta 6.33862 6.31947 8.39033 -0.051946 -0.054734 0.085119
Ta 6.30961 4.25884 10.56206 0.075121 -0.542769 0.057588
Ta 4.20876 6.32794 10.48641 0.061486 0.431101 0.602978
