48
Lattice = "8.39999961853 0.0 0.0 0.0 8.39999961853 0.0 0.0 0.0 12.6000003815" Properties=species:S:1:pos:R:3:forces:R:3 energy=-556.027926 stress="43564.39 -49.54 -99.3 -49.54 45432.35 275.06 -99.3 275.06 40185.14"
Ta 8.34497 8.34551 12.5956 0.712799 0.267536 -0.153036
Ta 2.0558 2.04577 0.01276 0.261385 -0.290707 -0.127804
Ta 2.06838 8.37737 2.16659 0.672547 0.395646 -1.312629
Ta 0.00359 2.05074 2.15226 -0.320824 0.421623 -0.432403
Ta 4.26826 8.33822 0.02108 -0.755392 0.804853 0.059577
Ta 6.33489 2.131 12.53088 -0.426566 -0.592698 0.445778
Ta 6.25404 0.03209 2.05073 0.258429 0.220942 0.825671
Ta 4.16384 2.13978 2.12517 0.060709 -0.255028 -0.249772
Ta 8.36731 4.13909 0.0525 0.331667 0.645722 -0.10797
Ta 2.15375 6.29902 0.04207 -0.223718 0.33025 -0.423847
Ta 2.11926 4.2113 2.04 0.077389 -0.274763 0.060731
Ta 0.06324 6.29457 2.13106 -0.639548 -0.256039 -0.611666
Ta 0.0522 8.3415 4.1171 -0.688958 0.522915 0.942873
Ta 2.07655 2.17403 4.20011 -0.235656 -0.209697 0.072817
Ta 2.1497 8.34384 6.3073 -0.390747 0.045154 -0.212304
Ta 0.02961 2.09814 6.34863 -0.334421 -0.350008 -0.633984
Ta 0.07703 0.06114 8.42699 -0.48162 -0.529725 -0.105918
Ta 2.1146 2.08725 8.35955 0.000134 0.091763 0.144876
Ta 2.17879 0.01668 10.42251 -0.327921 -0.945931 0.74699
Ta 0.01535 2.14423 10.49771 0.421563 -0.107154 0.042196
Ta 4.24355 4.14389 12.57727 -0.490707 -0.151469 0.150492
Ta 6.30703 6.31257 0.03364 0.317513 -0.514173 0.21469
Ta 6.21957 4.24141 2.11393 0.747501 -0.932063 -0.27685
Ta 4.27447 6.25375 2.16537 -0.54996 0.359185 -0.634042
Ta 4.13684 8.3759 4.1221 0.976955 0.422783 0.46928
Ta 6.31913 2.1596 4.19723 -0.042125 -0.448326 0.0636
Ta 6.32938 0.03364 6.23358 0.112289 -0.022674 -0.410219
Ta 4.15414 2.02652 6.21831 0.551165 0.522365 0.208895
Ta 4.28152 8.39237 8.35103 -0.247267 -0.367146 -0.056108
Ta 6.31596 2.06768 8.44393 -0.115638 0.184021 -0.398675
Ta 6.3285 8.32779 10.51057 -0.165051 0.47747 -0.199364
Ta 4.12563 2.0398 10.42566 0.443476 0.125337 0.61432
Ta 8.38026 4.1908 4.13874 0.589643 0.264679 0.088241
Ta 2.17116 6.35301 4.11791 -0.570772 -1.315435 0.985555
Ta 2.03626 4.1604 6.34457 0.154161 0.572819 -0.628519
Ta 8.38985 6.30508 6.28594 0.326379 0.413925 -0.417146
Ta 8.36103 4.20342 8.38265 -0.217143 0.101356 0.728482
Ta 2.08955 6.26468 8.3173 0.243414 0.178383 0.814981
Ta 2.15221 4.23276 10.51632 -0.473082 0.143977 0.127608
Ta 8.36864 6.28423 10.50391 0.518348 -0.281377 0.03593
Ta 4.17037 4.21177 4.21967 -0.156993 -0.293509 0.422478
Ta 6.32577 6.23846 4.15284 0.005152 0.74102 0.318444
Ta 6.34611 4.25945 6.31433 -0.335588 -0.895129 0.197851
Ta 4.21525 6.23105 6.29066 0.022941 0.346622 -0.028249
Ta 4.1532 4.14295 8.36799 0.730355 0.232327 -0.123611
Ta 6.32703 6.37247 8.32622 -0.158654 -0.470012 0.487803
Ta 6.2491 4.16576 10.55905 0.217972 0.346985 -0.975743
Ta 4.26539 6.24873 10.54677 -0.405539 0.323408 -0.750301
